.options METHOD=be
.tran 0.5 2.6


V1 1 0 2 exp (2 5 1 0.2 2 0.5)
*v1 1 0 1e-3 PWL(0 1e-3) (1.2 0.1) (1.4 1) (2 0.2) (3 0.4)
*v1 1 0 2
R8 1 2 0.2
C1222 1 2 7
L1 2 0 1.0

.plot V(1)
.end





