.options METHOD=BE
.tran 0.05 1011.8
.options sparse
v1 5 0 2 exp (2 5 1 0.2 2 0.5)
v2 3 2 0.2 pulse (0.2 1 1 0.1 0.4 0.5 2)
*I1 4 8 1e-3 SIN (1e-3 0.5 5 1 1 30)
*I2 0 6 1e-3 PWL (0 1e-3) (1.2 0.1) (1.4 1) (2 0.2) (3 0.4)
*V1 5 0 2
*V2 3 2 0.2
*V3 7 6 2
*I1 4 8 1e-3
*I2 0 6 1e-3
R1 1 5 1.5
R2 1 2 1
R3 5 2 50
R4 2 6 0.1
R5 2 6 1.5
R6 3 4 0.1
R7 8 0 1e3
R8 4 0 0.2
*C1222 1 2 7
L1 3 4 10

.plot V(1) V(2) v(5) V(8)

